This namelist contains various input parameters for HYDRO runs

&RUN
tend=8.0
noutput=50
/

&MESH
nx=200
ny=1200
dx=0.02
boundary_left=1
boundary_right=1
boundary_down=1
boundary_up=1
/

&HYDRO
courant_factor=0.8
niter_riemann=10
/
